
OS:Version,
  {d9799fef-72d7-46da-863d-c8eabe02ad16}, !- Handle
  3.1.0;                                  !- Version Identifier

OS:Construction,
  {22187930-976b-468f-879f-be55e429ed94}, !- Handle
  Attic & Other Roof CZ1 R-29,            !- Name
  ,                                       !- Surface Rendering Name
  {ef977b94-ae17-48f8-a713-0189ff00ac8d}, !- Layer 1
  {73532a79-7dbe-4cd9-8b56-1c6859c2e961}; !- Layer 2

OS:StandardsInformation:Construction,
  {908dde15-0798-46af-a5bf-3625af6774c7}, !- Handle
  {22187930-976b-468f-879f-be55e429ed94}, !- Construction Name
  AtticFloor,                             !- Intended Surface Type
  WoodFramed;                             !- Standards Construction Type

OS:Material,
  {ef977b94-ae17-48f8-a713-0189ff00ac8d}, !- Handle
  5/8 in. Gypsum Board,                   !- Name
  MediumSmooth,                           !- Roughness
  0.0159,                                 !- Thickness {m}
  0.159999999999999,                      !- Conductivity {W/m-K}
  799.999999999999,                       !- Density {kg/m3}
  1090,                                   !- Specific Heat {J/kg-K}
  0.9,                                    !- Thermal Absorptance
  0.7,                                    !- Solar Absorptance
  0.7;                                    !- Visible Absorptance

OS:Material:NoMass,
  {73532a79-7dbe-4cd9-8b56-1c6859c2e961}, !- Handle
  Typical Insulation R-27.78,             !- Name
  Smooth,                                 !- Roughness
  4.89189838823363,                       !- Thermal Resistance {m2-K/W}
  0.9,                                    !- Thermal Absorptance
  0.7,                                    !- Solar Absorptance
  0.7;                                    !- Visible Absorptance

OS:Construction,
  {5dbc8ac2-c2cc-4bf3-9d47-997d7ef5270b}, !- Handle
  Typical Attic & Other Roof CZ1 R-29,    !- Name
  ,                                       !- Surface Rendering Name
  {ef977b94-ae17-48f8-a713-0189ff00ac8d}, !- Layer 1
  {73532a79-7dbe-4cd9-8b56-1c6859c2e961}; !- Layer 2

OS:StandardsInformation:Construction,
  {bcb2f5f5-4a7f-477a-97da-c3f555c66a0f}, !- Handle
  {5dbc8ac2-c2cc-4bf3-9d47-997d7ef5270b}, !- Construction Name
  AtticFloor,                             !- Intended Surface Type
  WoodFramed;                             !- Standards Construction Type

OS:Construction,
  {7816e4c8-aa82-4d35-b9de-a968940410a5}, !- Handle
  Attic & Other Roof CZ1 R-39,            !- Name
  ,                                       !- Surface Rendering Name
  {ef977b94-ae17-48f8-a713-0189ff00ac8d}, !- Layer 1
  {4fe2c97f-ad93-4aa3-969c-6165e6317bd9}; !- Layer 2

OS:StandardsInformation:Construction,
  {4ab250c3-36b8-4dc0-b748-43b6672804de}, !- Handle
  {7816e4c8-aa82-4d35-b9de-a968940410a5}, !- Construction Name
  AtticFloor,                             !- Intended Surface Type
  WoodFramed;                             !- Standards Construction Type

OS:Material:NoMass,
  {4fe2c97f-ad93-4aa3-969c-6165e6317bd9}, !- Handle
  Typical Insulation R-37.78,             !- Name
  Smooth,                                 !- Roughness
  6.65300022505669,                       !- Thermal Resistance {m2-K/W}
  0.9,                                    !- Thermal Absorptance
  0.7,                                    !- Solar Absorptance
  0.7;                                    !- Visible Absorptance

OS:Construction,
  {113719b0-4eef-4a77-84b7-38b59c768611}, !- Handle
  Attic & Other Roof CZ1 R-44,            !- Name
  ,                                       !- Surface Rendering Name
  {ef977b94-ae17-48f8-a713-0189ff00ac8d}, !- Layer 1
  {35a1ab7d-1233-45c7-8b01-9451955ba8f9}; !- Layer 2

OS:StandardsInformation:Construction,
  {085dce66-5dfc-4ad1-b733-6e75afdb5f93}, !- Handle
  {113719b0-4eef-4a77-84b7-38b59c768611}, !- Construction Name
  AtticFloor,                             !- Intended Surface Type
  WoodFramed;                             !- Standards Construction Type

OS:Material:NoMass,
  {35a1ab7d-1233-45c7-8b01-9451955ba8f9}, !- Handle
  Typical Insulation R-42.78,             !- Name
  Smooth,                                 !- Roughness
  7.53355114346822,                       !- Thermal Resistance {m2-K/W}
  0.9,                                    !- Thermal Absorptance
  0.7,                                    !- Solar Absorptance
  0.7;                                    !- Visible Absorptance

OS:Construction,
  {7ba1cfdb-27a5-4aae-bcad-10e0a4b3daff}, !- Handle
  Attic & Other Roof CZ1 R-49,            !- Name
  ,                                       !- Surface Rendering Name
  {ef977b94-ae17-48f8-a713-0189ff00ac8d}, !- Layer 1
  {26b1fd3e-5793-43c0-bdf6-94b7b5f9fa47}; !- Layer 2

OS:StandardsInformation:Construction,
  {892d7c21-dc24-48ae-8ca9-b1273c4ede32}, !- Handle
  {7ba1cfdb-27a5-4aae-bcad-10e0a4b3daff}, !- Construction Name
  AtticFloor,                             !- Intended Surface Type
  WoodFramed;                             !- Standards Construction Type

OS:Material:NoMass,
  {26b1fd3e-5793-43c0-bdf6-94b7b5f9fa47}, !- Handle
  Typical Insulation R-47.78,             !- Name
  Smooth,                                 !- Roughness
  8.41410206187975,                       !- Thermal Resistance {m2-K/W}
  0.9,                                    !- Thermal Absorptance
  0.7,                                    !- Solar Absorptance
  0.7;                                    !- Visible Absorptance

OS:Construction,
  {4dbe71c8-6889-4058-8703-adc475d2ceee}, !- Handle
  Attic & Other Roof CZ1 R-54,            !- Name
  ,                                       !- Surface Rendering Name
  {ef977b94-ae17-48f8-a713-0189ff00ac8d}, !- Layer 1
  {b06e48f3-b9cf-4034-8fc2-df04096477bf}; !- Layer 2

OS:StandardsInformation:Construction,
  {87ecb5c3-ff52-439b-88b6-ad4d28ab5de1}, !- Handle
  {4dbe71c8-6889-4058-8703-adc475d2ceee}, !- Construction Name
  AtticFloor,                             !- Intended Surface Type
  WoodFramed;                             !- Standards Construction Type

OS:Material:NoMass,
  {b06e48f3-b9cf-4034-8fc2-df04096477bf}, !- Handle
  Typical Insulation R-52.78,             !- Name
  Smooth,                                 !- Roughness
  9.29465298029128,                       !- Thermal Resistance {m2-K/W}
  0.9,                                    !- Thermal Absorptance
  0.7,                                    !- Solar Absorptance
  0.7;                                    !- Visible Absorptance

OS:Construction,
  {5ab39b1a-53f6-40d4-bbf6-d9adc086bd44}, !- Handle
  IEAD Roof CZ1 R-16,                     !- Name
  ,                                       !- Surface Rendering Name
  {92c2f31c-5140-4f0b-a50a-6549881f9910}, !- Layer 1
  {d936cf86-94f7-4b52-b75e-720df1e435cc}, !- Layer 2
  {f9e0f05f-2544-45c2-a48d-c98cc305d48d}; !- Layer 3

OS:StandardsInformation:Construction,
  {0f3c020c-5c85-4f2e-9fdd-2614b0dbec5a}, !- Handle
  {5ab39b1a-53f6-40d4-bbf6-d9adc086bd44}, !- Construction Name
  ExteriorRoof,                           !- Intended Surface Type
  IEAD;                                   !- Standards Construction Type

OS:Material,
  {92c2f31c-5140-4f0b-a50a-6549881f9910}, !- Handle
  Roof Membrane - Highly Reflective,      !- Name
  VeryRough,                              !- Roughness
  0.0095,                                 !- Thickness {m}
  0.16,                                   !- Conductivity {W/m-K}
  1121.29,                                !- Density {kg/m3}
  1460,                                   !- Specific Heat {J/kg-K}
  0.75,                                   !- Thermal Absorptance
  0.45,                                   !- Solar Absorptance
  0.7;                                    !- Visible Absorptance

OS:Material:NoMass,
  {d936cf86-94f7-4b52-b75e-720df1e435cc}, !- Handle
  Typical Insulation R-14.76,             !- Name
  Smooth,                                 !- Roughness
  2.59864112987226,                       !- Thermal Resistance {m2-K/W}
  0.9,                                    !- Thermal Absorptance
  0.7,                                    !- Solar Absorptance
  0.7;                                    !- Visible Absorptance

OS:Material,
  {f9e0f05f-2544-45c2-a48d-c98cc305d48d}, !- Handle
  Metal Roof Surface,                     !- Name
  Smooth,                                 !- Roughness
  0.000799999999999998,                   !- Thickness {m}
  45.2799999999999,                       !- Conductivity {W/m-K}
  7823.99999999999,                       !- Density {kg/m3}
  499.999999999996,                       !- Specific Heat {J/kg-K}
  0.9,                                    !- Thermal Absorptance
  0.7,                                    !- Solar Absorptance
  0.7;                                    !- Visible Absorptance

OS:Construction,
  {c6861b0f-c91d-4c85-87fb-35d2fa1bc616}, !- Handle
  Typical IEAD Roof CZ1 R-16,             !- Name
  ,                                       !- Surface Rendering Name
  {92c2f31c-5140-4f0b-a50a-6549881f9910}, !- Layer 1
  {d936cf86-94f7-4b52-b75e-720df1e435cc}, !- Layer 2
  {f9e0f05f-2544-45c2-a48d-c98cc305d48d}; !- Layer 3

OS:StandardsInformation:Construction,
  {9acce180-9973-4f2c-83b3-4c6193a4a425}, !- Handle
  {c6861b0f-c91d-4c85-87fb-35d2fa1bc616}, !- Construction Name
  ExteriorRoof,                           !- Intended Surface Type
  IEAD;                                   !- Standards Construction Type

OS:Construction,
  {dec3ca40-1288-4dcb-9c06-98dc1e2e047e}, !- Handle
  IEAD Roof CZ1 R-26,                     !- Name
  ,                                       !- Surface Rendering Name
  {92c2f31c-5140-4f0b-a50a-6549881f9910}, !- Layer 1
  {09779b93-2259-4a1e-8692-20b33c3ea66e}, !- Layer 2
  {f9e0f05f-2544-45c2-a48d-c98cc305d48d}; !- Layer 3

OS:StandardsInformation:Construction,
  {fafa726b-d38e-46ac-81fc-fab85dcbd90f}, !- Handle
  {dec3ca40-1288-4dcb-9c06-98dc1e2e047e}, !- Construction Name
  ExteriorRoof,                           !- Intended Surface Type
  IEAD;                                   !- Standards Construction Type

OS:Material:NoMass,
  {09779b93-2259-4a1e-8692-20b33c3ea66e}, !- Handle
  Typical Insulation R-24.76,             !- Name
  Smooth,                                 !- Roughness
  4.35974296669532,                       !- Thermal Resistance {m2-K/W}
  0.9,                                    !- Thermal Absorptance
  0.7,                                    !- Solar Absorptance
  0.7;                                    !- Visible Absorptance

OS:Construction,
  {b22a09d0-8078-4bbe-87ac-49a9bae87aa0}, !- Handle
  IEAD Roof CZ1 R-31,                     !- Name
  ,                                       !- Surface Rendering Name
  {92c2f31c-5140-4f0b-a50a-6549881f9910}, !- Layer 1
  {cb136fa4-4aec-4f8d-abe5-6e5f46354c20}, !- Layer 2
  {f9e0f05f-2544-45c2-a48d-c98cc305d48d}; !- Layer 3

OS:StandardsInformation:Construction,
  {f3b4560c-4bd8-4b3c-a7c2-6e96655fdfd7}, !- Handle
  {b22a09d0-8078-4bbe-87ac-49a9bae87aa0}, !- Construction Name
  ExteriorRoof,                           !- Intended Surface Type
  IEAD;                                   !- Standards Construction Type

OS:Material:NoMass,
  {cb136fa4-4aec-4f8d-abe5-6e5f46354c20}, !- Handle
  Typical Insulation R-29.76,             !- Name
  Smooth,                                 !- Roughness
  5.24029388510685,                       !- Thermal Resistance {m2-K/W}
  0.9,                                    !- Thermal Absorptance
  0.7,                                    !- Solar Absorptance
  0.7;                                    !- Visible Absorptance

OS:Construction,
  {3c74bf82-dd16-4981-8639-1e9c4e5c913f}, !- Handle
  IEAD Roof CZ1 R-36,                     !- Name
  ,                                       !- Surface Rendering Name
  {92c2f31c-5140-4f0b-a50a-6549881f9910}, !- Layer 1
  {35457810-f47b-4a95-a1e6-fa3984f0bcc5}, !- Layer 2
  {f9e0f05f-2544-45c2-a48d-c98cc305d48d}; !- Layer 3

OS:StandardsInformation:Construction,
  {b0458d82-66eb-42e0-846f-e94b8b092889}, !- Handle
  {3c74bf82-dd16-4981-8639-1e9c4e5c913f}, !- Construction Name
  ExteriorRoof,                           !- Intended Surface Type
  IEAD;                                   !- Standards Construction Type

OS:Material:NoMass,
  {35457810-f47b-4a95-a1e6-fa3984f0bcc5}, !- Handle
  Typical Insulation R-34.76,             !- Name
  Smooth,                                 !- Roughness
  6.12084480351838,                       !- Thermal Resistance {m2-K/W}
  0.9,                                    !- Thermal Absorptance
  0.7,                                    !- Solar Absorptance
  0.7;                                    !- Visible Absorptance

OS:Construction,
  {e944cc30-f42a-401d-bd43-ff8786689cbe}, !- Handle
  IEAD Roof CZ1 R-41,                     !- Name
  ,                                       !- Surface Rendering Name
  {92c2f31c-5140-4f0b-a50a-6549881f9910}, !- Layer 1
  {314efd0a-64f5-4604-9c5b-2566edc3809b}, !- Layer 2
  {f9e0f05f-2544-45c2-a48d-c98cc305d48d}; !- Layer 3

OS:StandardsInformation:Construction,
  {f6e5766b-ab0f-43dd-a43c-0a17da93624a}, !- Handle
  {e944cc30-f42a-401d-bd43-ff8786689cbe}, !- Construction Name
  ExteriorRoof,                           !- Intended Surface Type
  IEAD;                                   !- Standards Construction Type

OS:Material:NoMass,
  {314efd0a-64f5-4604-9c5b-2566edc3809b}, !- Handle
  Typical Insulation R-39.76,             !- Name
  Smooth,                                 !- Roughness
  7.00139572192991,                       !- Thermal Resistance {m2-K/W}
  0.9,                                    !- Thermal Absorptance
  0.7,                                    !- Solar Absorptance
  0.7;                                    !- Visible Absorptance

OS:Construction,
  {89ce713e-50b7-4d15-895d-214f11a6a9b3}, !- Handle
  Metal Roof CZ1 R-15,                    !- Name
  ,                                       !- Surface Rendering Name
  {e8473714-c2ba-47d6-a0fd-8e4c1f6e3661}, !- Layer 1
  {15d9766a-5113-4379-9615-5454bf6a2242}; !- Layer 2

OS:StandardsInformation:Construction,
  {ce117bf7-cb5a-438a-8490-dc0ffd967051}, !- Handle
  {89ce713e-50b7-4d15-895d-214f11a6a9b3}, !- Construction Name
  ExteriorRoof,                           !- Intended Surface Type
  Metal Building;                         !- Standards Construction Type

OS:Material,
  {e8473714-c2ba-47d6-a0fd-8e4c1f6e3661}, !- Handle
  Metal Roof Surface - Highly Reflective, !- Name
  Smooth,                                 !- Roughness
  0.000799999999999998,                   !- Thickness {m}
  45.2799999999999,                       !- Conductivity {W/m-K}
  7823.99999999999,                       !- Density {kg/m3}
  499.999999999996,                       !- Specific Heat {J/kg-K}
  0.75,                                   !- Thermal Absorptance
  0.45,                                   !- Solar Absorptance
  0.7;                                    !- Visible Absorptance

OS:Material:NoMass,
  {15d9766a-5113-4379-9615-5454bf6a2242}, !- Handle
  Typical Insulation R-14.6,              !- Name
  Smooth,                                 !- Roughness
  2.57200383014952,                       !- Thermal Resistance {m2-K/W}
  0.9,                                    !- Thermal Absorptance
  0.7,                                    !- Solar Absorptance
  0.7;                                    !- Visible Absorptance

OS:Construction,
  {a2148d4d-8e22-487b-8aa1-f6ba509b8d15}, !- Handle
  Typical Metal Roof CZ1 R-15,            !- Name
  ,                                       !- Surface Rendering Name
  {e8473714-c2ba-47d6-a0fd-8e4c1f6e3661}, !- Layer 1
  {15d9766a-5113-4379-9615-5454bf6a2242}; !- Layer 2

OS:StandardsInformation:Construction,
  {3634d05c-64c0-47bb-afae-17dca054f0f8}, !- Handle
  {a2148d4d-8e22-487b-8aa1-f6ba509b8d15}, !- Construction Name
  ExteriorRoof,                           !- Intended Surface Type
  Metal Building;                         !- Standards Construction Type

OS:Construction,
  {ca06ebab-ea0a-40a0-96ed-6569bbc544fe}, !- Handle
  Metal Roof CZ1 R-25,                    !- Name
  ,                                       !- Surface Rendering Name
  {e8473714-c2ba-47d6-a0fd-8e4c1f6e3661}, !- Layer 1
  {0a198386-6c3d-4762-b768-5d3a715f1ccc}; !- Layer 2

OS:StandardsInformation:Construction,
  {5d0b39f5-0b84-4efa-8436-0a922dee61b6}, !- Handle
  {ca06ebab-ea0a-40a0-96ed-6569bbc544fe}, !- Construction Name
  ExteriorRoof,                           !- Intended Surface Type
  Metal Building;                         !- Standards Construction Type

OS:Material:NoMass,
  {0a198386-6c3d-4762-b768-5d3a715f1ccc}, !- Handle
  Typical Insulation R-24.6,              !- Name
  Smooth,                                 !- Roughness
  4.33310566697258,                       !- Thermal Resistance {m2-K/W}
  0.9,                                    !- Thermal Absorptance
  0.7,                                    !- Solar Absorptance
  0.7;                                    !- Visible Absorptance

OS:Construction,
  {9cbf4cf6-ee6a-45e3-99dc-41b66be62b7e}, !- Handle
  Metal Roof CZ1 R-30,                    !- Name
  ,                                       !- Surface Rendering Name
  {e8473714-c2ba-47d6-a0fd-8e4c1f6e3661}, !- Layer 1
  {6ea287af-f99c-46e0-8114-3cd453986b8f}; !- Layer 2

OS:StandardsInformation:Construction,
  {0f8980cc-4195-4aba-b9a5-f9bc80674485}, !- Handle
  {9cbf4cf6-ee6a-45e3-99dc-41b66be62b7e}, !- Construction Name
  ExteriorRoof,                           !- Intended Surface Type
  Metal Building;                         !- Standards Construction Type

OS:Material:NoMass,
  {6ea287af-f99c-46e0-8114-3cd453986b8f}, !- Handle
  Typical Insulation R-29.6,              !- Name
  Smooth,                                 !- Roughness
  5.21365658538411,                       !- Thermal Resistance {m2-K/W}
  0.9,                                    !- Thermal Absorptance
  0.7,                                    !- Solar Absorptance
  0.7;                                    !- Visible Absorptance

OS:Construction,
  {b97fd391-b895-4eab-a757-1ed0a07a5543}, !- Handle
  Metal Roof CZ1 R-35,                    !- Name
  ,                                       !- Surface Rendering Name
  {e8473714-c2ba-47d6-a0fd-8e4c1f6e3661}, !- Layer 1
  {62a30a4d-9fcf-4077-8901-962c0d768892}; !- Layer 2

OS:StandardsInformation:Construction,
  {52e6e9f9-26c1-44f1-b83b-3fbe987ee014}, !- Handle
  {b97fd391-b895-4eab-a757-1ed0a07a5543}, !- Construction Name
  ExteriorRoof,                           !- Intended Surface Type
  Metal Building;                         !- Standards Construction Type

OS:Material:NoMass,
  {62a30a4d-9fcf-4077-8901-962c0d768892}, !- Handle
  Typical Insulation R-34.6,              !- Name
  Smooth,                                 !- Roughness
  6.09420750379564,                       !- Thermal Resistance {m2-K/W}
  0.9,                                    !- Thermal Absorptance
  0.7,                                    !- Solar Absorptance
  0.7;                                    !- Visible Absorptance

OS:Construction,
  {e9b077c8-7e57-41c5-bdbf-f27d65d61001}, !- Handle
  Metal Roof CZ1 R-40,                    !- Name
  ,                                       !- Surface Rendering Name
  {e8473714-c2ba-47d6-a0fd-8e4c1f6e3661}, !- Layer 1
  {570f30cc-d20d-4a97-ad69-5e05b6057ce3}; !- Layer 2

OS:StandardsInformation:Construction,
  {4375ce76-57e6-4bd9-936c-e5e434bb2b0a}, !- Handle
  {e9b077c8-7e57-41c5-bdbf-f27d65d61001}, !- Construction Name
  ExteriorRoof,                           !- Intended Surface Type
  Metal Building;                         !- Standards Construction Type

OS:Material:NoMass,
  {570f30cc-d20d-4a97-ad69-5e05b6057ce3}, !- Handle
  Typical Insulation R-39.6,              !- Name
  Smooth,                                 !- Roughness
  6.97475842220717,                       !- Thermal Resistance {m2-K/W}
  0.9,                                    !- Thermal Absorptance
  0.7,                                    !- Solar Absorptance
  0.7;                                    !- Visible Absorptance

OS:Construction,
  {6f6a178a-d50c-4936-b249-e6534f8ddcb2}, !- Handle
  Mass Wall CZ1 R-2,                      !- Name
  ,                                       !- Surface Rendering Name
  {f0035021-89eb-414a-82f5-18d2c61a12ca}, !- Layer 1
  {1c460703-8630-4ff2-99ff-b974cda53f97}, !- Layer 2
  {73bbc024-f53e-466f-946a-9fa3ef27899e}, !- Layer 3
  {c97a2667-7f79-4611-ba05-2fae90330771}; !- Layer 4

OS:StandardsInformation:Construction,
  {11be5a2a-0244-4f2f-83a2-dba093969053}, !- Handle
  {6f6a178a-d50c-4936-b249-e6534f8ddcb2}, !- Construction Name
  ExteriorWall,                           !- Intended Surface Type
  Mass;                                   !- Standards Construction Type

OS:Material,
  {f0035021-89eb-414a-82f5-18d2c61a12ca}, !- Handle
  1IN Stucco,                             !- Name
  Smooth,                                 !- Roughness
  0.0253,                                 !- Thickness {m}
  0.691799999999999,                      !- Conductivity {W/m-K}
  1858,                                   !- Density {kg/m3}
  836.999999999999,                       !- Specific Heat {J/kg-K}
  0.9,                                    !- Thermal Absorptance
  0.7,                                    !- Solar Absorptance
  0.92;                                   !- Visible Absorptance

OS:Material,
  {1c460703-8630-4ff2-99ff-b974cda53f97}, !- Handle
  8IN CONCRETE HW RefBldg,                !- Name
  Rough,                                  !- Roughness
  0.2032,                                 !- Thickness {m}
  1.311,                                  !- Conductivity {W/m-K}
  2240,                                   !- Density {kg/m3}
  836.800000000001,                       !- Specific Heat {J/kg-K}
  0.9,                                    !- Thermal Absorptance
  0.7,                                    !- Solar Absorptance
  0.7;                                    !- Visible Absorptance

OS:Material:NoMass,
  {73bbc024-f53e-466f-946a-9fa3ef27899e}, !- Handle
  Typical Insulation R-0.01,              !- Name
  Smooth,                                 !- Roughness
  0.00176110183682306,                    !- Thermal Resistance {m2-K/W}
  0.9,                                    !- Thermal Absorptance
  0.7,                                    !- Solar Absorptance
  0.7;                                    !- Visible Absorptance

OS:Material,
  {c97a2667-7f79-4611-ba05-2fae90330771}, !- Handle
  1/2IN Gypsum,                           !- Name
  Smooth,                                 !- Roughness
  0.0127,                                 !- Thickness {m}
  0.16,                                   !- Conductivity {W/m-K}
  784.9,                                  !- Density {kg/m3}
  830.000000000001,                       !- Specific Heat {J/kg-K}
  0.9,                                    !- Thermal Absorptance
  0.4,                                    !- Solar Absorptance
  0.4;                                    !- Visible Absorptance

OS:Construction,
  {596d63eb-bcad-4c03-9ae6-5938c822aad7}, !- Handle
  Typical Mass Wall CZ1 R-2,              !- Name
  ,                                       !- Surface Rendering Name
  {f0035021-89eb-414a-82f5-18d2c61a12ca}, !- Layer 1
  {1c460703-8630-4ff2-99ff-b974cda53f97}, !- Layer 2
  {73bbc024-f53e-466f-946a-9fa3ef27899e}, !- Layer 3
  {c97a2667-7f79-4611-ba05-2fae90330771}; !- Layer 4

OS:StandardsInformation:Construction,
  {7eba34a8-4590-4fb8-a661-d824fa2fded8}, !- Handle
  {596d63eb-bcad-4c03-9ae6-5938c822aad7}, !- Construction Name
  ExteriorWall,                           !- Intended Surface Type
  Mass;                                   !- Standards Construction Type

OS:Construction,
  {2f5ed8a0-ea1c-453b-b41b-1c0ba2e02ef6}, !- Handle
  Mass Wall CZ1 R-7,                      !- Name
  ,                                       !- Surface Rendering Name
  {f0035021-89eb-414a-82f5-18d2c61a12ca}, !- Layer 1
  {1c460703-8630-4ff2-99ff-b974cda53f97}, !- Layer 2
  {0335c244-e2b1-4fe4-a433-304b372ed94a}, !- Layer 3
  {c97a2667-7f79-4611-ba05-2fae90330771}; !- Layer 4

OS:StandardsInformation:Construction,
  {ff218fd3-2a67-424c-ae6a-dc2e9c03ce82}, !- Handle
  {2f5ed8a0-ea1c-453b-b41b-1c0ba2e02ef6}, !- Construction Name
  ExteriorWall,                           !- Intended Surface Type
  Mass;                                   !- Standards Construction Type

OS:Material:NoMass,
  {0335c244-e2b1-4fe4-a433-304b372ed94a}, !- Handle
  Typical Insulation R-4.34,              !- Name
  Smooth,                                 !- Roughness
  0.763553060521299,                      !- Thermal Resistance {m2-K/W}
  0.9,                                    !- Thermal Absorptance
  0.7,                                    !- Solar Absorptance
  0.7;                                    !- Visible Absorptance

OS:Construction,
  {93acd09a-b389-4b04-ba67-fd4b4c4ff979}, !- Handle
  Mass Wall CZ1 R-12,                     !- Name
  ,                                       !- Surface Rendering Name
  {f0035021-89eb-414a-82f5-18d2c61a12ca}, !- Layer 1
  {1c460703-8630-4ff2-99ff-b974cda53f97}, !- Layer 2
  {2dcf476e-4300-4383-8ad3-beb9d77341f7}, !- Layer 3
  {c97a2667-7f79-4611-ba05-2fae90330771}; !- Layer 4

OS:StandardsInformation:Construction,
  {130db169-fde8-4e28-84ba-40e1100455c6}, !- Handle
  {93acd09a-b389-4b04-ba67-fd4b4c4ff979}, !- Construction Name
  ExteriorWall,                           !- Intended Surface Type
  Mass;                                   !- Standards Construction Type

OS:Material:NoMass,
  {2dcf476e-4300-4383-8ad3-beb9d77341f7}, !- Handle
  Typical Insulation R-9.34,              !- Name
  Smooth,                                 !- Roughness
  1.64410397893283,                       !- Thermal Resistance {m2-K/W}
  0.9,                                    !- Thermal Absorptance
  0.7,                                    !- Solar Absorptance
  0.7;                                    !- Visible Absorptance

OS:Construction,
  {99dfc37a-6137-453b-a828-9dd86a90570a}, !- Handle
  Mass Wall CZ1 R-17,                     !- Name
  ,                                       !- Surface Rendering Name
  {f0035021-89eb-414a-82f5-18d2c61a12ca}, !- Layer 1
  {1c460703-8630-4ff2-99ff-b974cda53f97}, !- Layer 2
  {95545025-c809-4650-8cb6-dd1442a3a107}, !- Layer 3
  {c97a2667-7f79-4611-ba05-2fae90330771}; !- Layer 4

OS:StandardsInformation:Construction,
  {20f07cb8-36e6-4925-b00b-51b18b147347}, !- Handle
  {99dfc37a-6137-453b-a828-9dd86a90570a}, !- Construction Name
  ExteriorWall,                           !- Intended Surface Type
  Mass;                                   !- Standards Construction Type

OS:Material:NoMass,
  {95545025-c809-4650-8cb6-dd1442a3a107}, !- Handle
  Typical Insulation R-14.34,             !- Name
  Smooth,                                 !- Roughness
  2.52465489734436,                       !- Thermal Resistance {m2-K/W}
  0.9,                                    !- Thermal Absorptance
  0.7,                                    !- Solar Absorptance
  0.7;                                    !- Visible Absorptance

OS:Construction,
  {983ec25f-2226-4704-b3ef-b93501789650}, !- Handle
  Mass Wall CZ1 R-22,                     !- Name
  ,                                       !- Surface Rendering Name
  {f0035021-89eb-414a-82f5-18d2c61a12ca}, !- Layer 1
  {1c460703-8630-4ff2-99ff-b974cda53f97}, !- Layer 2
  {b766b17c-3aba-4429-bf86-9d53dcd8bc2f}, !- Layer 3
  {c97a2667-7f79-4611-ba05-2fae90330771}; !- Layer 4

OS:StandardsInformation:Construction,
  {420a44c3-95a4-47b6-b988-6196403b15c5}, !- Handle
  {983ec25f-2226-4704-b3ef-b93501789650}, !- Construction Name
  ExteriorWall,                           !- Intended Surface Type
  Mass;                                   !- Standards Construction Type

OS:Material:NoMass,
  {b766b17c-3aba-4429-bf86-9d53dcd8bc2f}, !- Handle
  Typical Insulation R-19.34,             !- Name
  Smooth,                                 !- Roughness
  3.40520581575589,                       !- Thermal Resistance {m2-K/W}
  0.9,                                    !- Thermal Absorptance
  0.7,                                    !- Solar Absorptance
  0.7;                                    !- Visible Absorptance

OS:Construction,
  {44eb75bc-1eb8-41ae-9728-ccf6a4a94dd8}, !- Handle
  Metal Wall CZ1 R-9,                     !- Name
  ,                                       !- Surface Rendering Name
  {8a9870c6-8a24-48c2-be2f-543fa3ac1518}, !- Layer 1
  {32409689-7e8f-4846-ac5e-309e93eea4b4}, !- Layer 2
  {c97a2667-7f79-4611-ba05-2fae90330771}; !- Layer 3

OS:StandardsInformation:Construction,
  {d7b7f138-86d9-49ce-9684-23fcbc26d26b}, !- Handle
  {44eb75bc-1eb8-41ae-9728-ccf6a4a94dd8}, !- Construction Name
  ExteriorWall,                           !- Intended Surface Type
  Metal Building;                         !- Standards Construction Type

OS:Material,
  {8a9870c6-8a24-48c2-be2f-543fa3ac1518}, !- Handle
  Metal Siding,                           !- Name
  Smooth,                                 !- Roughness
  0.0015,                                 !- Thickness {m}
  44.9599999999999,                       !- Conductivity {W/m-K}
  7688.86,                                !- Density {kg/m3}
  410,                                    !- Specific Heat {J/kg-K}
  0.9,                                    !- Thermal Absorptance
  0.7,                                    !- Solar Absorptance
  0.7;                                    !- Visible Absorptance

OS:Material:NoMass,
  {32409689-7e8f-4846-ac5e-309e93eea4b4}, !- Handle
  Typical Insulation R-7.55,              !- Name
  Smooth,                                 !- Roughness
  1.32939518160909,                       !- Thermal Resistance {m2-K/W}
  0.9,                                    !- Thermal Absorptance