
OS:Version,
  {33a03294-ccda-452d-9a80-bf0f9625e0b2}, !- Handle
  3.2.0;                                  !- Version Identifier

OS:Construction,
  {24781f06-bbfb-40e1-b803-30a14c5c069a}, !- Handle
  Attic & Other Roof CZ1 - R-29 |Attic & Other Roof CZ1 - R-5, !- Name
  ,                                       !- Surface Rendering Name
  {c3ec1b3c-1493-41d4-b7fc-a38061aad784}, !- Layer 1
  {89fb1cdc-f48e-43f2-a241-be23450668ed}; !- Layer 2

OS:StandardsInformation:Construction,
  {59c11bec-adfe-46b0-a119-8fb5f3df0ef5}, !- Handle
  {24781f06-bbfb-40e1-b803-30a14c5c069a}, !- Construction Name
  AtticFloor,                             !- Intended Surface Type
  WoodFramed;                             !- Standards Construction Type

OS:Material,
  {c3ec1b3c-1493-41d4-b7fc-a38061aad784}, !- Handle
  5/8 in. Gypsum Board,                   !- Name
  MediumSmooth,                           !- Roughness
  0.0159,                                 !- Thickness {m}
  0.159999999999999,                      !- Conductivity {W/m-K}
  799.999999999999,                       !- Density {kg/m3}
  1090,                                   !- Specific Heat {J/kg-K}
  0.9,                                    !- Thermal Absorptance
  0.7,                                    !- Solar Absorptance
  0.7;                                    !- Visible Absorptance

OS:Material:NoMass,
  {89fb1cdc-f48e-43f2-a241-be23450668ed}, !- Handle
  Typical Insulation R-27.78,             !- Name
  Smooth,                                 !- Roughness
  4.89189838823363,                       !- Thermal Resistance {m2-K/W}
  0.9,                                    !- Thermal Absorptance
  0.7,                                    !- Solar Absorptance
  0.7;                                    !- Visible Absorptance

OS:Construction,
  {13182c26-02b7-4e15-8363-8fa09d59df70}, !- Handle
  Typical Attic & Other Roof CZ1 - R-29 |Attic & Other Roof CZ1 - R-5, !- Name
  ,                                       !- Surface Rendering Name
  {c3ec1b3c-1493-41d4-b7fc-a38061aad784}, !- Layer 1
  {89fb1cdc-f48e-43f2-a241-be23450668ed}; !- Layer 2

OS:StandardsInformation:Construction,
  {5aea7022-65ec-4a6f-a659-aaffdc2e3f3b}, !- Handle
  {13182c26-02b7-4e15-8363-8fa09d59df70}, !- Construction Name
  AtticFloor,                             !- Intended Surface Type
  WoodFramed;                             !- Standards Construction Type

OS:Construction,
  {315ef90b-fe6e-45a2-bcb2-3eec9cb28587}, !- Handle
  Attic & Other Roof CZ1 - R-39 |Attic & Other Roof CZ1 - R-7, !- Name
  ,                                       !- Surface Rendering Name
  {c3ec1b3c-1493-41d4-b7fc-a38061aad784}, !- Layer 1
  {a5e8e061-ffaf-4808-a740-0f2e6163ef34}; !- Layer 2

OS:StandardsInformation:Construction,
  {bc0e20eb-d26b-4efa-9109-b8beb95a4b3e}, !- Handle
  {315ef90b-fe6e-45a2-bcb2-3eec9cb28587}, !- Construction Name
  AtticFloor,                             !- Intended Surface Type
  WoodFramed;                             !- Standards Construction Type

OS:Material:NoMass,
  {a5e8e061-ffaf-4808-a740-0f2e6163ef34}, !- Handle
  Typical Insulation R-37.78,             !- Name
  Smooth,                                 !- Roughness
  6.65300022505669,                       !- Thermal Resistance {m2-K/W}
  0.9,                                    !- Thermal Absorptance
  0.7,                                    !- Solar Absorptance
  0.7;                                    !- Visible Absorptance

OS:Construction,
  {c858e190-2780-4222-9e8b-11b50356522c}, !- Handle
  Attic & Other Roof CZ1 - R-44 |Attic & Other Roof CZ1 - R-8, !- Name
  ,                                       !- Surface Rendering Name
  {c3ec1b3c-1493-41d4-b7fc-a38061aad784}, !- Layer 1
  {036a4968-a616-4c45-ace8-08320b3e4a87}; !- Layer 2

OS:StandardsInformation:Construction,
  {53d370dc-fe38-4f35-a60c-02c9165f092f}, !- Handle
  {c858e190-2780-4222-9e8b-11b50356522c}, !- Construction Name
  AtticFloor,                             !- Intended Surface Type
  WoodFramed;                             !- Standards Construction Type

OS:Material:NoMass,
  {036a4968-a616-4c45-ace8-08320b3e4a87}, !- Handle
  Typical Insulation R-42.78,             !- Name
  Smooth,                                 !- Roughness
  7.53355114346822,                       !- Thermal Resistance {m2-K/W}
  0.9,                                    !- Thermal Absorptance
  0.7,                                    !- Solar Absorptance
  0.7;                                    !- Visible Absorptance

OS:Construction,
  {6c6082a4-5ee0-4606-a22b-bbf6d34327dd}, !- Handle
  Attic & Other Roof CZ1 - R-49 |Attic & Other Roof CZ1 - R-9, !- Name
  ,                                       !- Surface Rendering Name
  {c3ec1b3c-1493-41d4-b7fc-a38061aad784}, !- Layer 1
  {9a1501b7-5926-46fd-ae4e-4802514dc783}; !- Layer 2

OS:StandardsInformation:Construction,
  {f364f96f-4028-40de-834f-8a9b59ba1fb8}, !- Handle
  {6c6082a4-5ee0-4606-a22b-bbf6d34327dd}, !- Construction Name
  AtticFloor,                             !- Intended Surface Type
  WoodFramed;                             !- Standards Construction Type

OS:Material:NoMass,
  {9a1501b7-5926-46fd-ae4e-4802514dc783}, !- Handle
  Typical Insulation R-47.78,             !- Name
  Smooth,                                 !- Roughness
  8.41410206187975,                       !- Thermal Resistance {m2-K/W}
  0.9,                                    !- Thermal Absorptance
  0.7,                                    !- Solar Absorptance
  0.7;                                    !- Visible Absorptance

OS:Construction,
  {049a6c79-e8a7-4a33-b532-351dccc866c7}, !- Handle
  Attic & Other Roof CZ1 - R-54 |Attic & Other Roof CZ1 - R-10, !- Name
  ,                                       !- Surface Rendering Name
  {c3ec1b3c-1493-41d4-b7fc-a38061aad784}, !- Layer 1
  {407a05b8-89f3-41a3-9039-2b64408c3db3}; !- Layer 2

OS:StandardsInformation:Construction,
  {38a67a00-61fc-4c40-a89f-9b1349d8f35e}, !- Handle
  {049a6c79-e8a7-4a33-b532-351dccc866c7}, !- Construction Name
  AtticFloor,                             !- Intended Surface Type
  WoodFramed;                             !- Standards Construction Type

OS:Material:NoMass,
  {407a05b8-89f3-41a3-9039-2b64408c3db3}, !- Handle
  Typical Insulation R-52.78,             !- Name
  Smooth,                                 !- Roughness
  9.29465298029128,                       !- Thermal Resistance {m2-K/W}
  0.9,                                    !- Thermal Absorptance
  0.7,                                    !- Solar Absorptance
  0.7;                                    !- Visible Absorptance

OS:Construction,
  {1e3fe666-afcf-4dfe-b1b8-ace6f4f6c183}, !- Handle
  IEAD Roof CZ1 - R-16 |IEAD Roof CZ1 - R-3, !- Name
  ,                                       !- Surface Rendering Name
  {0597677d-03ea-4244-b57a-62879c7b026d}, !- Layer 1
  {12f4fa59-a182-44ab-886c-efbff2cfc062}, !- Layer 2
  {9e8c3805-f056-440d-b215-311740167069}; !- Layer 3

OS:StandardsInformation:Construction,
  {dbbcc3ba-2eb9-4c95-8e28-767604c33bb3}, !- Handle
  {1e3fe666-afcf-4dfe-b1b8-ace6f4f6c183}, !- Construction Name
  ExteriorRoof,                           !- Intended Surface Type
  IEAD;                                   !- Standards Construction Type

OS:Material,
  {0597677d-03ea-4244-b57a-62879c7b026d}, !- Handle
  Roof Membrane - Highly Reflective,      !- Name
  VeryRough,                              !- Roughness
  0.0095,                                 !- Thickness {m}
  0.16,                                   !- Conductivity {W/m-K}
  1121.29,                                !- Density {kg/m3}
  1460,                                   !- Specific Heat {J/kg-K}
  0.75,                                   !- Thermal Absorptance
  0.45,                                   !- Solar Absorptance
  0.7;                                    !- Visible Absorptance

OS:Material:NoMass,
  {12f4fa59-a182-44ab-886c-efbff2cfc062}, !- Handle
  Typical Insulation R-14.76,             !- Name
  Smooth,                                 !- Roughness
  2.59864112987226,                       !- Thermal Resistance {m2-K/W}
  0.9,                                    !- Thermal Absorptance
  0.7,                                    !- Solar Absorptance
  0.7;                                    !- Visible Absorptance

OS:Material,
  {9e8c3805-f056-440d-b215-311740167069}, !- Handle
  Metal Roof Surface,                     !- Name
  Smooth,                                 !- Roughness
  0.000799999999999998,                   !- Thickness {m}
  45.2799999999999,                       !- Conductivity {W/m-K}
  7823.99999999999,                       !- Density {kg/m3}
  499.999999999996,                       !- Specific Heat {J/kg-K}
  0.9,                                    !- Thermal Absorptance
  0.7,                                    !- Solar Absorptance
  0.7;                                    !- Visible Absorptance

OS:Construction,
  {d14fc902-311a-48ed-b744-16cfde4c7bd8}, !- Handle
  Typical IEAD Roof CZ1 - R-16 |IEAD Roof CZ1 - R-3, !- Name
  ,                                       !- Surface Rendering Name
  {0597677d-03ea-4244-b57a-62879c7b026d}, !- Layer 1
  {12f4fa59-a182-44ab-886c-efbff2cfc062}, !- Layer 2
  {9e8c3805-f056-440d-b215-311740167069}; !- Layer 3

OS:StandardsInformation:Construction,
  {a21fd085-4ff1-4e45-bfbc-1741f1daca6b}, !- Handle
  {d14fc902-311a-48ed-b744-16cfde4c7bd8}, !- Construction Name
  ExteriorRoof,                           !- Intended Surface Type
  IEAD;                                   !- Standards Construction Type

OS:Construction,
  {6cb2d157-4df3-48e9-ba44-045188dbc9d3}, !- Handle
  IEAD Roof CZ1 - R-26 |IEAD Roof CZ1 - R-5, !- Name
  ,                                       !- Surface Rendering Name
  {0597677d-03ea-4244-b57a-62879c7b026d}, !- Layer 1
  {714feb26-c964-4e79-9ae3-84d30f618f9f}, !- Layer 2
  {9e8c3805-f056-440d-b215-311740167069}; !- Layer 3

OS:StandardsInformation:Construction,
  {2178267e-8f91-4d3f-ad1e-8994248974a1}, !- Handle
  {6cb2d157-4df3-48e9-ba44-045188dbc9d3}, !- Construction Name
  ExteriorRoof,                           !- Intended Surface Type
  IEAD;                                   !- Standards Construction Type

OS:Material:NoMass,
  {714feb26-c964-4e79-9ae3-84d30f618f9f}, !- Handle
  Typical Insulation R-24.76,             !- Name
  Smooth,                                 !- Roughness
  4.35974296669532,                       !- Thermal Resistance {m2-K/W}
  0.9,                                    !- Thermal Absorptance
  0.7,                                    !- Solar Absorptance
  0.7;                                    !- Visible Absorptance

OS:Construction,
  {46acc53c-598d-45fd-ac47-b63b83c084a8}, !- Handle
  IEAD Roof CZ1 - R-31 |IEAD Roof CZ1 - R-5, !- Name
  ,                                       !- Surface Rendering Name
  {0597677d-03ea-4244-b57a-62879c7b026d}, !- Layer 1
  {bdab0b2c-9e17-47b1-9b8c-7c7fd61bd5cf}, !- Layer 2
  {9e8c3805-f056-440d-b215-311740167069}; !- Layer 3

OS:StandardsInformation:Construction,
  {18fc4079-43ef-4bd7-9806-75e75935f16d}, !- Handle
  {46acc53c-598d-45fd-ac47-b63b83c084a8}, !- Construction Name
  ExteriorRoof,                           !- Intended Surface Type
  IEAD;                                   !- Standards Construction Type

OS:Material:NoMass,
  {bdab0b2c-9e17-47b1-9b8c-7c7fd61bd5cf}, !- Handle
  Typical Insulation R-29.76,             !- Name
  Smooth,                                 !- Roughness
  5.24029388510685,                       !- Thermal Resistance {m2-K/W}
  0.9,                                    !- Thermal Absorptance
  0.7,                                    !- Solar Absorptance
  0.7;                                    !- Visible Absorptance

OS:Construction,
  {99b20240-20ee-46b7-addc-4f262ad52ce6}, !- Handle
  IEAD Roof CZ1 - R-36 |IEAD Roof CZ1 - R-6, !- Name
  ,                                       !- Surface Rendering Name
  {0597677d-03ea-4244-b57a-62879c7b026d}, !- Layer 1
  {fb14edb3-3656-4d9e-8756-ff64ae5306ab}, !- Layer 2
  {9e8c3805-f056-440d-b215-311740167069}; !- Layer 3

OS:StandardsInformation:Construction,
  {8b2bc928-83e6-4635-a44a-4334997c080d}, !- Handle
  {99b20240-20ee-46b7-addc-4f262ad52ce6}, !- Construction Name
  ExteriorRoof,                           !- Intended Surface Type
  IEAD;                                   !- Standards Construction Type

OS:Material:NoMass,
  {fb14edb3-3656-4d9e-8756-ff64ae5306ab}, !- Handle
  Typical Insulation R-34.76,             !- Name
  Smooth,                                 !- Roughness
  6.12084480351838,                       !- Thermal Resistance {m2-K/W}
  0.9,                                    !- Thermal Absorptance
  0.7,                                    !- Solar Absorptance
  0.7;                                    !- Visible Absorptance

OS:Construction,
  {030520cb-6a5d-4a41-bd44-c09c8fe3cb68}, !- Handle
  IEAD Roof CZ1 - R-41 |IEAD Roof CZ1 - R-7, !- Name
  ,                                       !- Surface Rendering Name
  {0597677d-03ea-4244-b57a-62879c7b026d}, !- Layer 1
  {a971c820-b76e-46d7-8660-97366e921f12}, !- Layer 2
  {9e8c3805-f056-440d-b215-311740167069}; !- Layer 3

OS:StandardsInformation:Construction,
  {b13a50c5-5a37-4679-b770-bb725d62650a}, !- Handle
  {030520cb-6a5d-4a41-bd44-c09c8fe3cb68}, !- Construction Name
  ExteriorRoof,                           !- Intended Surface Type
  IEAD;                                   !- Standards Construction Type

OS:Material:NoMass,
  {a971c820-b76e-46d7-8660-97366e921f12}, !- Handle
  Typical Insulation R-39.76,             !- Name
  Smooth,                                 !- Roughness
  7.00139572192991,                       !- Thermal Resistance {m2-K/W}
  0.9,                                    !- Thermal Absorptance
  0.7,                                    !- Solar Absorptance
  0.7;                                    !- Visible Absorptance

OS:Construction,
  {1b307914-f6b3-4f66-b8e3-ce9559e92c7b}, !- Handle
  Metal Roof CZ1 - R-15 |Metal Roof CZ1 - R-3, !- Name
  ,                                       !- Surface Rendering Name
  {2454744f-731b-4f38-954f-df630753c320}, !- Layer 1
  {005c216c-6649-4369-80b3-b1ed20264c82}; !- Layer 2

OS:StandardsInformation:Construction,
  {529ae463-5e82-4d9e-9c79-091ba5560cea}, !- Handle
  {1b307914-f6b3-4f66-b8e3-ce9559e92c7b}, !- Construction Name
  ExteriorRoof,                           !- Intended Surface Type
  Metal Building;                         !- Standards Construction Type

OS:Material,
  {2454744f-731b-4f38-954f-df630753c320}, !- Handle
  Metal Roof Surface - Highly Reflective, !- Name
  Smooth,                                 !- Roughness
  0.000799999999999998,                   !- Thickness {m}
  45.2799999999999,                       !- Conductivity {W/m-K}
  7823.99999999999,                       !- Density {kg/m3}
  499.999999999996,                       !- Specific Heat {J/kg-K}
  0.75,                                   !- Thermal Absorptance
  0.45,                                   !- Solar Absorptance
  0.7;                                    !- Visible Absorptance

OS:Material:NoMass,
  {005c216c-6649-4369-80b3-b1ed20264c82}, !- Handle
  Typical Insulation R-14.6,              !- Name
  Smooth,                                 !- Roughness
  2.57200383014952,                       !- Thermal Resistance {m2-K/W}
  0.9,                                    !- Thermal Absorptance
  0.7,                                    !- Solar Absorptance
  0.7;                                    !- Visible Absorptance

OS:Construction,
  {bc955565-a6f1-4ddc-b417-defa29218d4b}, !- Handle
  Typical Metal Roof CZ1 - R-15 |Metal Roof CZ1 - R-3, !- Name
  ,                                       !- Surface Rendering Name
  {2454744f-731b-4f38-954f-df630753c320}, !- Layer 1
  {005c216c-6649-4369-80b3-b1ed20264c82}; !- Layer 2

OS:StandardsInformation:Construction,
  {be53a0d1-6b23-4e14-9118-340b8e636353}, !- Handle
  {bc955565-a6f1-4ddc-b417-defa29218d4b}, !- Construction Name
  ExteriorRoof,                           !- Intended Surface Type
  Metal Building;                         !- Standards Construction Type

OS:Construction,
  {e89a3533-c495-4ed3-9e57-8c37a778ad4f}, !- Handle
  Metal Roof CZ1 - R-25 |Metal Roof CZ1 - R-4, !- Name
  ,                                       !- Surface Rendering Name
  {2454744f-731b-4f38-954f-df630753c320}, !- Layer 1
  {fb68dba8-10d5-4c29-8092-8626cf058fc4}; !- Layer 2

OS:StandardsInformation:Construction,
  {c33eb3d8-3b18-4089-88d2-0502e66d8bfa}, !- Handle
  {e89a3533-c495-4ed3-9e57-8c37a778ad4f}, !- Construction Name
  ExteriorRoof,                           !- Intended Surface Type
  Metal Building;                         !- Standards Construction Type

OS:Material:NoMass,
  {fb68dba8-10d5-4c29-8092-8626cf058fc4}, !- Handle
  Typical Insulation R-24.6,              !- Name
  Smooth,                                 !- Roughness
  4.33310566697258,                       !- Thermal Resistance {m2-K/W}
  0.9,                                    !- Thermal Absorptance
  0.7,                                    !- Solar Absorptance
  0.7;                                    !- Visible Absorptance

OS:Construction,
  {6f5ec16b-9139-44f7-8fd5-dbda7df446c3}, !- Handle
  Metal Roof CZ1 - R-30 |Metal Roof CZ1 - R-5, !- Name
  ,                                       !- Surface Rendering Name
  {2454744f-731b-4f38-954f-df630753c320}, !- Layer 1
  {c7a876a3-11e5-46a2-bff0-055df6ab2c31}; !- Layer 2

OS:StandardsInformation:Construction,
  {58a28c4b-cae6-4385-bb8b-ed11ae12335f}, !- Handle
  {6f5ec16b-9139-44f7-8fd5-dbda7df446c3}, !- Construction Name
  ExteriorRoof,                           !- Intended Surface Type
  Metal Building;                         !- Standards Construction Type

OS:Material:NoMass,
  {c7a876a3-11e5-46a2-bff0-055df6ab2c31}, !- Handle
  Typical Insulation R-29.6,              !- Name
  Smooth,                                 !- Roughness
  5.21365658538411,                       !- Thermal Resistance {m2-K/W}
  0.9,                                    !- Thermal Absorptance
  0.7,                                    !- Solar Absorptance
  0.7;                                    !- Visible Absorptance

OS:Construction,
  {68da320d-3f86-43cb-af17-4e9bc345c390}, !- Handle
  Metal Roof CZ1 - R-35 |Metal Roof CZ1 - R-6, !- Name
  ,                                       !- Surface Rendering Name
  {2454744f-731b-4f38-954f-df630753c320}, !- Layer 1
  {95da4419-0492-4d88-ae99-8e5ac48ef59d}; !- Layer 2

OS:StandardsInformation:Construction,
  {dfbc1a25-4dfa-4f4f-a8a6-bbb18c42f3d9}, !- Handle
  {68da320d-3f86-43cb-af17-4e9bc345c390}, !- Construction Name
  ExteriorRoof,                           !- Intended Surface Type
  Metal Building;                         !- Standards Construction Type

OS:Material:NoMass,
  {95da4419-0492-4d88-ae99-8e5ac48ef59d}, !- Handle
  Typical Insulation R-34.6,              !- Name
  Smooth,                                 !- Roughness
  6.09420750379564,                       !- Thermal Resistance {m2-K/W}
  0.9,                                    !- Thermal Absorptance
  0.7,                                    !- Solar Absorptance
  0.7;                                    !- Visible Absorptance

OS:Construction,
  {22e26e11-5e5d-4b31-b6c7-ff8425fc98e0}, !- Handle
  Metal Roof CZ1 - R-40 |Metal Roof CZ1 - R-7, !- Name
  ,                                       !- Surface Rendering Name
  {2454744f-731b-4f38-954f-df630753c320}, !- Layer 1
  {54493381-65ef-4225-88f7-2b96d38a9994}; !- Layer 2

OS:StandardsInformation:Construction,
  {4348ce5b-bba4-435a-ab1f-a6f2d1bb28e5}, !- Handle
  {22e26e11-5e5d-4b31-b6c7-ff8425fc98e0}, !- Construction Name
  ExteriorRoof,                           !- Intended Surface Type
  Metal Building;                         !- Standards Construction Type

OS:Material:NoMass,
  {54493381-65ef-4225-88f7-2b96d38a9994}, !- Handle
  Typical Insulation R-39.6,              !- Name
  Smooth,                                 !- Roughness
  6.97475842220717,                       !- Thermal Resistance {m2-K/W}
  0.9,                                    !- Thermal Absorptance
  0.7,                                    !- Solar Absorptance
  0.7;                                    !- Visible Absorptance

OS:Construction,
  {979e2c82-b27f-4da9-b6e5-895e6716d8b3}, !- Handle
  Mass Wall CZ1 - R-2 |Mass Wall CZ1 - R-0, !- Name
  ,                                       !- Surface Rendering Name
  {20543eec-fa32-452d-b199-754660d0ae57}, !- Layer 1
  {a6b6ab69-7321-43e6-b96a-9ff8619eeb57}, !- Layer 2
  {85f93098-fbf1-4697-9aa1-5ba65099bb50}, !- Layer 3
  {32601b9d-6b04-4fe0-b8ac-14627e04fe6c}; !- Layer 4

OS:StandardsInformation:Construction,
  {fce33d42-90ae-4e9b-9d51-7ed6559acb66}, !- Handle
  {979e2c82-b27f-4da9-b6e5-895e6716d8b3}, !- Construction Name
  ExteriorWall,                           !- Intended Surface Type
  Mass;                                   !- Standards Construction Type

OS:Material,
  {20543eec-fa32-452d-b199-754660d0ae57}, !- Handle
  1IN Stucco,                             !- Name
  Smooth,                                 !- Roughness
  0.0253,                                 !- Thickness {m}
  0.691799999999999,                      !- Conductivity {W/m-K}
  1858,                                   !- Density {kg/m3}
  836.999999999999,                       !- Specific Heat {J/kg-K}
  0.9,                                    !- Thermal Absorptance
  0.7,                                    !- Solar Absorptance
  0.92;                                   !- Visible Absorptance

OS:Material,
  {a6b6ab69-7321-43e6-b96a-9ff8619eeb57}, !- Handle
  8IN CONCRETE HW RefBldg,                !- Name
  Rough,                                  !- Roughness
  0.2032,                                 !- Thickness {m}
  1.311,                                  !- Conductivity {W/m-K}
  2240,                                   !- Density {kg/m3}
  836.800000000001,                       !- Specific Heat {J/kg-K}
  0.9,                                    !- Thermal Absorptance
  0.7,                                    !- Solar Absorptance
  0.7;                                    !- Visible Absorptance

OS:Material:NoMass,
  {85f93098-fbf1-4697-9aa1-5ba65099bb50}, !- Handle
  Typical Insulation R-0.01,              !- Name
  Smooth,                                 !- Roughness
  0.00176110183682306,                    !- Thermal Resistance {m2-K/W}
  0.9,                                    !- Thermal Absorptance
  0.7,                                    !- Solar Absorptance
  0.7;                                    !- Visible Absorptance

OS:Material,
  {32601b9d-6b04-4fe0-b8ac-14627e04fe6c}, !- Handle
  1/2IN Gypsum,                           !- Name
  Smooth,                                 !- Roughness
  0.0127,                                 !- Thickness {m}
  0.16,                                   !- Conductivity {W/m-K}
  784.9,                                  !- Density {kg/m3}
  830.000000000001,                       !- Specific Heat {J/kg-K}
  0.9,                                    !- Thermal Absorptance
  0.4,                                    !- Solar Absorptance
  0.4;                                    !- Visible Absorptance

OS:Construction,
  {4cd15338-2c0a-40a3-a723-25245a50cfee}, !- Handle
  Typical Mass Wall CZ1 - R-2 |Mass Wall CZ1 - R-0, !- Name
  ,                                       !- Surface Rendering Name
  {20543eec-fa32-452d-b199-754660d0ae57}, !- Layer 1
  {a6b6ab69-7321-43e6-b96a-9ff8619eeb57}, !- Layer 2
  {85f93098-fbf1-4697-9aa1-5ba65099bb50}, !- Layer 3
  {32601b9d-6b04-4fe0-b8ac-14627e04fe6c}; !- Layer 4

OS:StandardsInformation:Construction,
  {d70d1037-73da-467c-b837-65d8e8a46ca8}, !- Handle
  {4cd15338-2c0a-40a3-a723-25245a50cfee}, !- Construction Name
  ExteriorWall,                           !- Intended Surface Type
  Mass;                                   !- Standards Construction Type

OS:Construction,
  {7ce8b4a9-924b-44f4-9acf-0eb9b448eb8f}, !- Handle
  Mass Wall CZ1 - R-7 |Mass Wall CZ1 - R-1, !- Name
  ,                                       !- Surface Rendering Name
  {20543eec-fa32-452d-b199-754660d0ae57}, !- Layer 1
  {a6b6ab69-7321-43e6-b96a-9ff8619eeb57}, !- Layer 2
  {b23ddc93-b884-4441-b2cc-27e588b5cf39}, !- Layer 3
  {32601b9d-6b04-4fe0-b8ac-14627e04fe6c}; !- Layer 4

OS:StandardsInformation:Construction,
  {2254652c-8207-4316-a9c2-c94877e5ff18}, !- Handle
  {7ce8b4a9-924b-44f4-9acf-0eb9b448eb8f}, !- Construction Name
  ExteriorWall,                           !- Intended Surface Type
  Mass;                                   !- Standards Construction Type

OS:Material:NoMass,
  {b23ddc93-b884-4441-b2cc-27e588b5cf39}, !- Handle
  Typical Insulation R-4.34,              !- Name
  Smooth,                                 !- Roughness
  0.763553060521299,                      !- Thermal Resistance {m2-K/W}
  0.9,                                    !- Thermal Absorptance
  0.7,                                    !- Solar Absorptance
  0.7;                                    !- Visible Absorptance

OS:Construction,
  {18f50d77-0edd-4999-80bd-406e972bc121}, !- Handle
  Mass Wall CZ1 - R-12 |Mass Wall CZ1 - R-2, !- Name
  ,                                       !- Surface Rendering Name
  {20543eec-fa32-452d-b199-754660d0ae57}, !- Layer 1
  {a6b6ab69-7321-43e6-b96a-9ff8619eeb57}, !- Layer 2
  {6a583cc9-d4a8-4049-994f-18e44bdd5dc0}, !- Layer 3
  {32601b9d-6b04-4fe0-b8ac-14627e04fe6c}; !- Layer 4

OS:StandardsInformation:Construction,
  {ae83909a-ee01-4762-b36f-4414ecbebcbe}, !- Handle
  {18f50d77-0edd-4999-80bd-406e972bc121}, !- Construction Name
  ExteriorWall,                           !- Intended Surface Type
  Mass;                                   !- Standards Construction Type

OS:Material:NoMass,
  {6a583cc9-d4a8-4049-994f-18e44bdd5dc0}, !- Handle
  Typical Insulation R-9.34,              !- Name
  Smooth,                                 !- Roughness
  1.64410397893283,                       !- Thermal Resistance {m2-K/W}
  0.9,                                    !- Thermal Absorptance
  0.7,                                    !- Solar Absorptance
  0.7;                                    !- Visible Absorptance

OS:Construction,
  {b74a94a5-40b4-4fd5-b0dc-8d0efab98281}, !- Handle
  Mass Wall CZ1 - R-17 |Mass Wall CZ1 - R-3, !- Name
  ,                                       !- Surface Rendering Name
  {20543eec-fa32-452d-b199-754660d0ae57}, !- Layer 1
  {a6b6ab69-7321-43e6-b96a-9ff8619eeb57}, !- Layer 2
  {89ce583b-77f0-4294-af5a-0a6d4edc792c}, !- Layer 3
  {32601b9d-6b04-4fe0-b8ac-14627e04fe6c}; !- Layer 4

OS:StandardsInformation:Construction,
  {763077ec-2efd-4a9a-9200-1ae8a9b815a1}, !- Handle
  {b74a94a5-40b4-4fd5-b0dc-8d0efab98281}, !- Construction Name
  ExteriorWall,                           !- Intended Surface Type
  Mass;                                   !- Standards Construction Type

OS:Material:NoMass,
  {89ce583b-77f0-4294-af5a-0a6d4edc792c}, !- Handle
  Typical Insulation R-14.34,             !- Name
  Smooth,                                 !- Roughness
  2.52465489734436,                       !- Thermal Resistance {m2-K/W}
  0.9,                                    !- Thermal Absorptance
  0.7,                                    !- Solar Absorptance
  0.7;                                    !- Visible Absorptance

OS:Construction,
  {5aa73ba2-7740-4db7-9a19-20c6121a490b}, !- Handle
  Mass Wall CZ1 - R-22 |Mass Wall CZ1 - R-4, !- Name
  ,                                       !- Surface Rendering Name
  {20543eec-fa32-452d-b199-754660d0ae57}, !- Layer 1
  {a6b6ab69-7321-43e6-b96a-9ff8619eeb57}, !- Layer 2
  {980e5c58-c73a-4bb4-b8a1-9c6c26f0eca8}, !- Layer 3
  {32601b9d-6b04-4fe0-b8ac-14627e04fe6c}; !- Layer 4

OS:StandardsInformation:Construction,
  {6407c7ed-e678-4d57-8e79-512d58834c75}, !- Handle
  {5aa73ba2-7740-4db7-9a19-20c6121a490b}, !- Construction Name
  ExteriorWall,                           !- Intended Surface Type
  Mass;                                   !- Standards Construction Type

OS:Material:NoMass,
  {980e5c58-c73a-4bb4-b8a1-9c6c26f0eca8}, !- Handle
  Typical Insulation R-19.34,             !- Name
  Smooth,                                 !- Roughness
  3.40520581575589,                       !- Thermal Resistance {m2-K/W}
  0.9,                                    !- Thermal Absorptance
  0.7,                                    !- Solar Absorptance
  0.7;                                    !- Visible Absorptance

OS:Construction,
  {650926cc-9b6a-4bf4-804c-24af4fbcbe6e}, !- Handle
  Metal Wall CZ1 - R-9 |Metal Wall CZ1 - R-2, !- Name
  ,                                       !- Surface Rendering Name
  {9f9c1e47-d222-48ad-830d-d9bf3cc3cc45}, !- Layer 1
  {281a5563-ed37-4501-ad14-9d149ac1f84f}, !- Layer 2
  {32601b9d-6b04-4fe0-b8ac-14627e04fe6c}; !- Layer 3

OS:StandardsInformation:Construction,
  {013a9836-9fcb-419b-9946-cdc551503661}, !- Handle
  {650926cc-9b6a-4bf4-804c-24af4fbcbe6e}, !- Construction Name
  ExteriorWall,                           !- Intended Surface Type
  Metal Building;                         !- Standards Construction Type

OS:Material,
  {9f9c1e47-d222-48ad-830d-d9bf3cc3cc45}, !- Handle
  Metal Siding,                           !- Name
  Smooth,                                 !- Roughness
  0.0015,                                 !- Thickness {m}
  44.9599999999999,                       !- Conductivity {W/m-K}
  7688.86,                                !- Density {kg/m3}
  410,                                    !- Specific Heat {J/kg-K}
  0.9,                                    !- Thermal Absorptance
  0.7,                                    !- Solar Absorptance
  0.7;                                    !- Visible Absorptance

OS:Material:NoMass,
  {281a5563-ed37-4501-ad14-9d149ac1f84f}, !- Handle