
OS:Version,
  {ea789352-8fb3-4b53-bb25-82e9ca1e4396}, !- Handle
  3.2.0;                                  !- Version Identifier

OS:Construction,
  {d6d52452-3c6c-4fa2-bf34-ae2e9d058ad1}, !- Handle
  Attic & Other Roof CZ1 R-29 |Attic & Other Roof CZ1 R-5.2, !- Name
  ,                                       !- Surface Rendering Name
  {bf5952ed-1870-482e-b6d7-e871b7c8c72e}, !- Layer 1
  {da62df8b-e470-4f90-99aa-c8a53567ca78}; !- Layer 2

OS:StandardsInformation:Construction,
  {33dce06b-48ae-4ac2-a70f-cd66b0523fdf}, !- Handle
  {d6d52452-3c6c-4fa2-bf34-ae2e9d058ad1}, !- Construction Name
  AtticFloor,                             !- Intended Surface Type
  WoodFramed;                             !- Standards Construction Type

OS:Material,
  {bf5952ed-1870-482e-b6d7-e871b7c8c72e}, !- Handle
  5/8 in. Gypsum Board,                   !- Name
  MediumSmooth,                           !- Roughness
  0.0159,                                 !- Thickness {m}
  0.159999999999999,                      !- Conductivity {W/m-K}
  799.999999999999,                       !- Density {kg/m3}
  1090,                                   !- Specific Heat {J/kg-K}
  0.9,                                    !- Thermal Absorptance
  0.7,                                    !- Solar Absorptance
  0.7;                                    !- Visible Absorptance

OS:Material:NoMass,
  {da62df8b-e470-4f90-99aa-c8a53567ca78}, !- Handle
  Typical Insulation R-27.78,             !- Name
  Smooth,                                 !- Roughness
  4.89189838823363,                       !- Thermal Resistance {m2-K/W}
  0.9,                                    !- Thermal Absorptance
  0.7,                                    !- Solar Absorptance
  0.7;                                    !- Visible Absorptance

OS:Construction,
  {13b2c01c-d7bf-4438-a4c5-7821a2246b3c}, !- Handle
  Typical Attic & Other Roof CZ1 R-29 |Typical Attic & Other Roof CZ1 R-5.2, !- Name
  ,                                       !- Surface Rendering Name
  {bf5952ed-1870-482e-b6d7-e871b7c8c72e}, !- Layer 1
  {da62df8b-e470-4f90-99aa-c8a53567ca78}; !- Layer 2

OS:StandardsInformation:Construction,
  {fdc939dd-d16f-4703-bfd8-fd03a4b3ae39}, !- Handle
  {13b2c01c-d7bf-4438-a4c5-7821a2246b3c}, !- Construction Name
  AtticFloor,                             !- Intended Surface Type
  WoodFramed;                             !- Standards Construction Type

OS:Construction,
  {2d50b010-1382-4229-b527-ab5d47ab573e}, !- Handle
  Attic & Other Roof CZ1 R-39 |Attic & Other Roof CZ1 R-6.9, !- Name
  ,                                       !- Surface Rendering Name
  {bf5952ed-1870-482e-b6d7-e871b7c8c72e}, !- Layer 1
  {a86dcf74-ffd7-442c-95e6-54c2120d5749}; !- Layer 2

OS:StandardsInformation:Construction,
  {850eb17e-558c-47dc-a1a4-7e2222a19aeb}, !- Handle
  {2d50b010-1382-4229-b527-ab5d47ab573e}, !- Construction Name
  AtticFloor,                             !- Intended Surface Type
  WoodFramed;                             !- Standards Construction Type

OS:Material:NoMass,
  {a86dcf74-ffd7-442c-95e6-54c2120d5749}, !- Handle
  Typical Insulation R-37.78,             !- Name
  Smooth,                                 !- Roughness
  6.65300022505669,                       !- Thermal Resistance {m2-K/W}
  0.9,                                    !- Thermal Absorptance
  0.7,                                    !- Solar Absorptance
  0.7;                                    !- Visible Absorptance

OS:Construction,
  {f960d967-1599-48b6-bc88-4ae7d5c2326d}, !- Handle
  Attic & Other Roof CZ1 R-44 |Attic & Other Roof CZ1 R-7.8, !- Name
  ,                                       !- Surface Rendering Name
  {bf5952ed-1870-482e-b6d7-e871b7c8c72e}, !- Layer 1
  {ebdddc66-3988-4c3b-b379-5f44f286374c}; !- Layer 2

OS:StandardsInformation:Construction,
  {4fec82c5-58c7-4fe4-b59f-69a8b8448532}, !- Handle
  {f960d967-1599-48b6-bc88-4ae7d5c2326d}, !- Construction Name
  AtticFloor,                             !- Intended Surface Type
  WoodFramed;                             !- Standards Construction Type

OS:Material:NoMass,
  {ebdddc66-3988-4c3b-b379-5f44f286374c}, !- Handle
  Typical Insulation R-42.78,             !- Name
  Smooth,                                 !- Roughness
  7.53355114346822,                       !- Thermal Resistance {m2-K/W}
  0.9,                                    !- Thermal Absorptance
  0.7,                                    !- Solar Absorptance
  0.7;                                    !- Visible Absorptance

OS:Construction,
  {1b1a0c9d-b1a8-4713-b855-cd90b662b06a}, !- Handle
  Attic & Other Roof CZ1 R-49 |Attic & Other Roof CZ1 R-8.7, !- Name
  ,                                       !- Surface Rendering Name
  {bf5952ed-1870-482e-b6d7-e871b7c8c72e}, !- Layer 1
  {d9395bba-1fd2-4417-8a32-0d545a6320ac}; !- Layer 2

OS:StandardsInformation:Construction,
  {00f85a96-440e-4b73-91f8-ad35540993c6}, !- Handle
  {1b1a0c9d-b1a8-4713-b855-cd90b662b06a}, !- Construction Name
  AtticFloor,                             !- Intended Surface Type
  WoodFramed;                             !- Standards Construction Type

OS:Material:NoMass,
  {d9395bba-1fd2-4417-8a32-0d545a6320ac}, !- Handle
  Typical Insulation R-47.78,             !- Name
  Smooth,                                 !- Roughness
  8.41410206187975,                       !- Thermal Resistance {m2-K/W}
  0.9,                                    !- Thermal Absorptance
  0.7,                                    !- Solar Absorptance
  0.7;                                    !- Visible Absorptance

OS:Construction,
  {053f5729-dda4-4f61-a08d-420dac891b2e}, !- Handle
  Attic & Other Roof CZ1 R-54 |Attic & Other Roof CZ1 R-9.6, !- Name
  ,                                       !- Surface Rendering Name
  {bf5952ed-1870-482e-b6d7-e871b7c8c72e}, !- Layer 1
  {c1a45902-7165-46a3-8584-5ee47811c688}; !- Layer 2

OS:StandardsInformation:Construction,
  {6a2d2cbe-62a9-41c7-a532-9eaa70bb8b39}, !- Handle
  {053f5729-dda4-4f61-a08d-420dac891b2e}, !- Construction Name
  AtticFloor,                             !- Intended Surface Type
  WoodFramed;                             !- Standards Construction Type

OS:Material:NoMass,
  {c1a45902-7165-46a3-8584-5ee47811c688}, !- Handle
  Typical Insulation R-52.78,             !- Name
  Smooth,                                 !- Roughness
  9.29465298029128,                       !- Thermal Resistance {m2-K/W}
  0.9,                                    !- Thermal Absorptance
  0.7,                                    !- Solar Absorptance
  0.7;                                    !- Visible Absorptance

OS:Construction,
  {d233544a-6a47-42ad-a05f-65be2f8db8d9}, !- Handle
  IEAD Roof CZ1 R-16 |IEAD Roof CZ1 R-2.8, !- Name
  ,                                       !- Surface Rendering Name
  {1c2a8eaf-7c62-476a-9d47-b194ec1b2133}, !- Layer 1
  {1e39a52a-91cd-4673-86f5-58c2912ae1f4}, !- Layer 2
  {97fd140b-4ad8-4150-8419-d1c3dff0b0f5}; !- Layer 3

OS:StandardsInformation:Construction,
  {a38d5a75-2dad-4bcb-85c3-8b03f49607f9}, !- Handle
  {d233544a-6a47-42ad-a05f-65be2f8db8d9}, !- Construction Name
  ExteriorRoof,                           !- Intended Surface Type
  IEAD;                                   !- Standards Construction Type

OS:Material,
  {1c2a8eaf-7c62-476a-9d47-b194ec1b2133}, !- Handle
  Roof Membrane - Highly Reflective,      !- Name
  VeryRough,                              !- Roughness
  0.0095,                                 !- Thickness {m}
  0.16,                                   !- Conductivity {W/m-K}
  1121.29,                                !- Density {kg/m3}
  1460,                                   !- Specific Heat {J/kg-K}
  0.75,                                   !- Thermal Absorptance
  0.45,                                   !- Solar Absorptance
  0.7;                                    !- Visible Absorptance

OS:Material:NoMass,
  {1e39a52a-91cd-4673-86f5-58c2912ae1f4}, !- Handle
  Typical Insulation R-14.76,             !- Name
  Smooth,                                 !- Roughness
  2.59864112987226,                       !- Thermal Resistance {m2-K/W}
  0.9,                                    !- Thermal Absorptance
  0.7,                                    !- Solar Absorptance
  0.7;                                    !- Visible Absorptance

OS:Material,
  {97fd140b-4ad8-4150-8419-d1c3dff0b0f5}, !- Handle
  Metal Roof Surface,                     !- Name
  Smooth,                                 !- Roughness
  0.000799999999999998,                   !- Thickness {m}
  45.2799999999999,                       !- Conductivity {W/m-K}
  7823.99999999999,                       !- Density {kg/m3}
  499.999999999996,                       !- Specific Heat {J/kg-K}
  0.9,                                    !- Thermal Absorptance
  0.7,                                    !- Solar Absorptance
  0.7;                                    !- Visible Absorptance

OS:Construction,
  {6af98150-01bd-4827-9e71-39fa0a8c231c}, !- Handle
  Typical IEAD Roof CZ1 R-16 |Typical IEAD Roof CZ1 R-2.8, !- Name
  ,                                       !- Surface Rendering Name
  {1c2a8eaf-7c62-476a-9d47-b194ec1b2133}, !- Layer 1
  {1e39a52a-91cd-4673-86f5-58c2912ae1f4}, !- Layer 2
  {97fd140b-4ad8-4150-8419-d1c3dff0b0f5}; !- Layer 3

OS:StandardsInformation:Construction,
  {1128e393-ab6d-40fc-b851-c870ff08307c}, !- Handle
  {6af98150-01bd-4827-9e71-39fa0a8c231c}, !- Construction Name
  ExteriorRoof,                           !- Intended Surface Type
  IEAD;                                   !- Standards Construction Type

OS:Construction,
  {6a5f8f1f-183f-4832-9110-381f22c32187}, !- Handle
  IEAD Roof CZ1 R-26 |IEAD Roof CZ1 R-4.6, !- Name
  ,                                       !- Surface Rendering Name
  {1c2a8eaf-7c62-476a-9d47-b194ec1b2133}, !- Layer 1
  {bf285694-1126-47d0-aecb-e161caece478}, !- Layer 2
  {97fd140b-4ad8-4150-8419-d1c3dff0b0f5}; !- Layer 3

OS:StandardsInformation:Construction,
  {1e97f96a-e25b-46e6-aafd-f57b95308a21}, !- Handle
  {6a5f8f1f-183f-4832-9110-381f22c32187}, !- Construction Name
  ExteriorRoof,                           !- Intended Surface Type
  IEAD;                                   !- Standards Construction Type

OS:Material:NoMass,
  {bf285694-1126-47d0-aecb-e161caece478}, !- Handle
  Typical Insulation R-24.76,             !- Name
  Smooth,                                 !- Roughness
  4.35974296669532,                       !- Thermal Resistance {m2-K/W}
  0.9,                                    !- Thermal Absorptance
  0.7,                                    !- Solar Absorptance
  0.7;                                    !- Visible Absorptance

OS:Construction,
  {c2261f46-b088-4616-8687-84774d6bbd99}, !- Handle
  IEAD Roof CZ1 R-31 |IEAD Roof CZ1 R-5.4, !- Name
  ,                                       !- Surface Rendering Name
  {1c2a8eaf-7c62-476a-9d47-b194ec1b2133}, !- Layer 1
  {d3018858-6a5d-4b60-b81b-010f935c4a1b}, !- Layer 2
  {97fd140b-4ad8-4150-8419-d1c3dff0b0f5}; !- Layer 3

OS:StandardsInformation:Construction,
  {6a5b66ed-50c5-4340-abfc-ee0da7e4425a}, !- Handle
  {c2261f46-b088-4616-8687-84774d6bbd99}, !- Construction Name
  ExteriorRoof,                           !- Intended Surface Type
  IEAD;                                   !- Standards Construction Type

OS:Material:NoMass,
  {d3018858-6a5d-4b60-b81b-010f935c4a1b}, !- Handle
  Typical Insulation R-29.76,             !- Name
  Smooth,                                 !- Roughness
  5.24029388510685,                       !- Thermal Resistance {m2-K/W}
  0.9,                                    !- Thermal Absorptance
  0.7,                                    !- Solar Absorptance
  0.7;                                    !- Visible Absorptance

OS:Construction,
  {fc157762-8186-459d-b5a2-6e0eeba5d870}, !- Handle
  IEAD Roof CZ1 R-36 |IEAD Roof CZ1 R-6.3, !- Name
  ,                                       !- Surface Rendering Name
  {1c2a8eaf-7c62-476a-9d47-b194ec1b2133}, !- Layer 1
  {5030866e-5e82-45d1-9f46-2b0bd4d5fa15}, !- Layer 2
  {97fd140b-4ad8-4150-8419-d1c3dff0b0f5}; !- Layer 3

OS:StandardsInformation:Construction,
  {b6922e8c-2074-4047-af27-80da4bfa5c88}, !- Handle
  {fc157762-8186-459d-b5a2-6e0eeba5d870}, !- Construction Name
  ExteriorRoof,                           !- Intended Surface Type
  IEAD;                                   !- Standards Construction Type

OS:Material:NoMass,
  {5030866e-5e82-45d1-9f46-2b0bd4d5fa15}, !- Handle
  Typical Insulation R-34.76,             !- Name
  Smooth,                                 !- Roughness
  6.12084480351838,                       !- Thermal Resistance {m2-K/W}
  0.9,                                    !- Thermal Absorptance
  0.7,                                    !- Solar Absorptance
  0.7;                                    !- Visible Absorptance

OS:Construction,
  {924dbecb-da7b-4525-838f-0be4ffda6428}, !- Handle
  IEAD Roof CZ1 R-41 |IEAD Roof CZ1 R-7.2, !- Name
  ,                                       !- Surface Rendering Name
  {1c2a8eaf-7c62-476a-9d47-b194ec1b2133}, !- Layer 1
  {613960e7-bbe5-4988-8e8b-31ea75fb61f8}, !- Layer 2
  {97fd140b-4ad8-4150-8419-d1c3dff0b0f5}; !- Layer 3

OS:StandardsInformation:Construction,
  {aea513fd-70fd-469b-8b09-f0f1a167c141}, !- Handle
  {924dbecb-da7b-4525-838f-0be4ffda6428}, !- Construction Name
  ExteriorRoof,                           !- Intended Surface Type
  IEAD;                                   !- Standards Construction Type

OS:Material:NoMass,
  {613960e7-bbe5-4988-8e8b-31ea75fb61f8}, !- Handle
  Typical Insulation R-39.76,             !- Name
  Smooth,                                 !- Roughness
  7.00139572192991,                       !- Thermal Resistance {m2-K/W}
  0.9,                                    !- Thermal Absorptance
  0.7,                                    !- Solar Absorptance
  0.7;                                    !- Visible Absorptance

OS:Construction,
  {dfcd4f0b-4572-4a58-b1b7-0131a8521b31}, !- Handle
  Metal Roof CZ1 R-15 |Metal Roof CZ1 R-2.7, !- Name
  ,                                       !- Surface Rendering Name
  {916df4bb-2bdc-4862-99c8-eb44eed317ac}, !- Layer 1
  {33c1283a-6404-412b-901d-4d07e90a34c4}; !- Layer 2

OS:StandardsInformation:Construction,
  {ab310feb-e7d9-4d0c-997b-54ceb897d7b2}, !- Handle
  {dfcd4f0b-4572-4a58-b1b7-0131a8521b31}, !- Construction Name
  ExteriorRoof,                           !- Intended Surface Type
  Metal Building;                         !- Standards Construction Type

OS:Material,
  {916df4bb-2bdc-4862-99c8-eb44eed317ac}, !- Handle
  Metal Roof Surface - Highly Reflective, !- Name
  Smooth,                                 !- Roughness
  0.000799999999999998,                   !- Thickness {m}
  45.2799999999999,                       !- Conductivity {W/m-K}
  7823.99999999999,                       !- Density {kg/m3}
  499.999999999996,                       !- Specific Heat {J/kg-K}
  0.75,                                   !- Thermal Absorptance
  0.45,                                   !- Solar Absorptance
  0.7;                                    !- Visible Absorptance

OS:Material:NoMass,
  {33c1283a-6404-412b-901d-4d07e90a34c4}, !- Handle
  Typical Insulation R-14.6,              !- Name
  Smooth,                                 !- Roughness
  2.57200383014952,                       !- Thermal Resistance {m2-K/W}
  0.9,                                    !- Thermal Absorptance
  0.7,                                    !- Solar Absorptance
  0.7;                                    !- Visible Absorptance

OS:Construction,
  {c01c7e84-4c96-4cdf-9dc7-013e287d0026}, !- Handle
  Typical Metal Roof CZ1 R-15 |Typical Metal Roof CZ1 R-2.7, !- Name
  ,                                       !- Surface Rendering Name
  {916df4bb-2bdc-4862-99c8-eb44eed317ac}, !- Layer 1
  {33c1283a-6404-412b-901d-4d07e90a34c4}; !- Layer 2

OS:StandardsInformation:Construction,
  {c1f95190-5f3e-44c7-9c8e-c2f97ebab4f6}, !- Handle
  {c01c7e84-4c96-4cdf-9dc7-013e287d0026}, !- Construction Name
  ExteriorRoof,                           !- Intended Surface Type
  Metal Building;                         !- Standards Construction Type

OS:Construction,
  {f8750118-747c-4167-81a7-15c1735380c0}, !- Handle
  Metal Roof CZ1 R-25 |Metal Roof CZ1 R-4.5, !- Name
  ,                                       !- Surface Rendering Name
  {916df4bb-2bdc-4862-99c8-eb44eed317ac}, !- Layer 1
  {97b16f2c-79fd-44e5-b792-1543e86781c4}; !- Layer 2

OS:StandardsInformation:Construction,
  {bf194d22-3618-405d-a7c9-0a2859be840b}, !- Handle
  {f8750118-747c-4167-81a7-15c1735380c0}, !- Construction Name
  ExteriorRoof,                           !- Intended Surface Type
  Metal Building;                         !- Standards Construction Type

OS:Material:NoMass,
  {97b16f2c-79fd-44e5-b792-1543e86781c4}, !- Handle
  Typical Insulation R-24.6,              !- Name
  Smooth,                                 !- Roughness
  4.33310566697258,                       !- Thermal Resistance {m2-K/W}
  0.9,                                    !- Thermal Absorptance
  0.7,                                    !- Solar Absorptance
  0.7;                                    !- Visible Absorptance

OS:Construction,
  {8117e194-6001-4922-8d24-44beb5eb3e12}, !- Handle
  Metal Roof CZ1 R-30 |Metal Roof CZ1 R-5.4, !- Name
  ,                                       !- Surface Rendering Name
  {916df4bb-2bdc-4862-99c8-eb44eed317ac}, !- Layer 1
  {98f4dd34-51e0-4cb6-92d2-05b496350b12}; !- Layer 2

OS:StandardsInformation:Construction,
  {fde41592-e316-496d-888d-ec49fce872f9}, !- Handle
  {8117e194-6001-4922-8d24-44beb5eb3e12}, !- Construction Name
  ExteriorRoof,                           !- Intended Surface Type
  Metal Building;                         !- Standards Construction Type

OS:Material:NoMass,
  {98f4dd34-51e0-4cb6-92d2-05b496350b12}, !- Handle
  Typical Insulation R-29.6,              !- Name
  Smooth,                                 !- Roughness
  5.21365658538411,                       !- Thermal Resistance {m2-K/W}
  0.9,                                    !- Thermal Absorptance
  0.7,                                    !- Solar Absorptance
  0.7;                                    !- Visible Absorptance

OS:Construction,
  {18061a86-412d-471a-a341-07eede68f864}, !- Handle
  Metal Roof CZ1 R-35 |Metal Roof CZ1 R-6.2, !- Name
  ,                                       !- Surface Rendering Name
  {916df4bb-2bdc-4862-99c8-eb44eed317ac}, !- Layer 1
  {9fe8df21-0ba4-49fb-9e4f-0e85fe1e6779}; !- Layer 2

OS:StandardsInformation:Construction,
  {bd8b47b4-3502-47d1-aee9-3b3777d41d2a}, !- Handle
  {18061a86-412d-471a-a341-07eede68f864}, !- Construction Name
  ExteriorRoof,                           !- Intended Surface Type
  Metal Building;                         !- Standards Construction Type

OS:Material:NoMass,
  {9fe8df21-0ba4-49fb-9e4f-0e85fe1e6779}, !- Handle
  Typical Insulation R-34.6,              !- Name
  Smooth,                                 !- Roughness
  6.09420750379564,                       !- Thermal Resistance {m2-K/W}
  0.9,                                    !- Thermal Absorptance
  0.7,                                    !- Solar Absorptance
  0.7;                                    !- Visible Absorptance

OS:Construction,
  {56dd3e22-16af-438a-b439-3a64eb270ba6}, !- Handle
  Metal Roof CZ1 R-40 |Metal Roof CZ1 R-7.1, !- Name
  ,                                       !- Surface Rendering Name
  {916df4bb-2bdc-4862-99c8-eb44eed317ac}, !- Layer 1
  {b3ae93d2-fe65-4a8a-bad4-873341d6c35e}; !- Layer 2

OS:StandardsInformation:Construction,
  {36c448b5-6ffc-4082-b39b-a67c0c4bd733}, !- Handle
  {56dd3e22-16af-438a-b439-3a64eb270ba6}, !- Construction Name
  ExteriorRoof,                           !- Intended Surface Type
  Metal Building;                         !- Standards Construction Type

OS:Material:NoMass,
  {b3ae93d2-fe65-4a8a-bad4-873341d6c35e}, !- Handle
  Typical Insulation R-39.6,              !- Name
  Smooth,                                 !- Roughness
  6.97475842220717,                       !- Thermal Resistance {m2-K/W}
  0.9,                                    !- Thermal Absorptance
  0.7,                                    !- Solar Absorptance
  0.7;                                    !- Visible Absorptance

OS:Construction,
  {4b02f797-3943-4fde-af70-03a9fb401a52}, !- Handle
  Mass Wall CZ1 R-2 |Mass Wall CZ1 R-0.3, !- Name
  ,                                       !- Surface Rendering Name
  {27eaca62-94b2-40e7-9637-102ace5dd10a}, !- Layer 1
  {29092fba-fe25-4e5e-a458-bdbece9261b9}, !- Layer 2
  {b444a184-7220-4d22-9027-233e119d47a0}, !- Layer 3
  {92bc572a-b37d-4c3a-9427-2810bd8efde0}; !- Layer 4

OS:StandardsInformation:Construction,
  {042b3f0c-9954-4650-9fcc-93b8041abb54}, !- Handle
  {4b02f797-3943-4fde-af70-03a9fb401a52}, !- Construction Name
  ExteriorWall,                           !- Intended Surface Type
  Mass;                                   !- Standards Construction Type

OS:Material,
  {27eaca62-94b2-40e7-9637-102ace5dd10a}, !- Handle
  1IN Stucco,                             !- Name
  Smooth,                                 !- Roughness
  0.0253,                                 !- Thickness {m}
  0.691799999999999,                      !- Conductivity {W/m-K}
  1858,                                   !- Density {kg/m3}
  836.999999999999,                       !- Specific Heat {J/kg-K}
  0.9,                                    !- Thermal Absorptance
  0.7,                                    !- Solar Absorptance
  0.92;                                   !- Visible Absorptance

OS:Material,
  {29092fba-fe25-4e5e-a458-bdbece9261b9}, !- Handle
  8IN CONCRETE HW RefBldg,                !- Name
  Rough,                                  !- Roughness
  0.2032,                                 !- Thickness {m}
  1.311,                                  !- Conductivity {W/m-K}
  2240,                                   !- Density {kg/m3}
  836.800000000001,                       !- Specific Heat {J/kg-K}
  0.9,                                    !- Thermal Absorptance
  0.7,                                    !- Solar Absorptance
  0.7;                                    !- Visible Absorptance

OS:Material:NoMass,
  {b444a184-7220-4d22-9027-233e119d47a0}, !- Handle
  Typical Insulation R-0.01,              !- Name
  Smooth,                                 !- Roughness
  0.00176110183682306,                    !- Thermal Resistance {m2-K/W}
  0.9,                                    !- Thermal Absorptance
  0.7,                                    !- Solar Absorptance
  0.7;                                    !- Visible Absorptance

OS:Material,
  {92bc572a-b37d-4c3a-9427-2810bd8efde0}, !- Handle
  1/2IN Gypsum,                           !- Name
  Smooth,                                 !- Roughness
  0.0127,                                 !- Thickness {m}
  0.16,                                   !- Conductivity {W/m-K}
  784.9,                                  !- Density {kg/m3}
  830.000000000001,                       !- Specific Heat {J/kg-K}
  0.9,                                    !- Thermal Absorptance
  0.4,                                    !- Solar Absorptance
  0.4;                                    !- Visible Absorptance

OS:Construction,
  {1bea63e6-8c5a-4c0e-9a2c-c484a27f7933}, !- Handle
  Typical Mass Wall CZ1 R-2 |Typical Mass Wall CZ1 R-0.3, !- Name
  ,                                       !- Surface Rendering Name
  {27eaca62-94b2-40e7-9637-102ace5dd10a}, !- Layer 1
  {29092fba-fe25-4e5e-a458-bdbece9261b9}, !- Layer 2
  {b444a184-7220-4d22-9027-233e119d47a0}, !- Layer 3
  {92bc572a-b37d-4c3a-9427-2810bd8efde0}; !- Layer 4

OS:StandardsInformation:Construction,
  {d2ac1c93-14cf-4b16-b13c-007196365afd}, !- Handle
  {1bea63e6-8c5a-4c0e-9a2c-c484a27f7933}, !- Construction Name
  ExteriorWall,                           !- Intended Surface Type
  Mass;                                   !- Standards Construction Type

OS:Construction,
  {7bae82b5-6937-4580-b734-834a22b388b4}, !- Handle
  Mass Wall CZ1 R-7 |Mass Wall CZ1 R-1.2, !- Name
  ,                                       !- Surface Rendering Name
  {27eaca62-94b2-40e7-9637-102ace5dd10a}, !- Layer 1
  {29092fba-fe25-4e5e-a458-bdbece9261b9}, !- Layer 2
  {157ea28f-a511-4aa0-89bc-bfc88d5399f5}, !- Layer 3
  {92bc572a-b37d-4c3a-9427-2810bd8efde0}; !- Layer 4

OS:StandardsInformation:Construction,
  {af0a76da-769a-47ed-bbce-6a55650c62df}, !- Handle
  {7bae82b5-6937-4580-b734-834a22b388b4}, !- Construction Name
  ExteriorWall,                           !- Intended Surface Type
  Mass;                                   !- Standards Construction Type

OS:Material:NoMass,
  {157ea28f-a511-4aa0-89bc-bfc88d5399f5}, !- Handle
  Typical Insulation R-4.34,              !- Name
  Smooth,                                 !- Roughness
  0.763553060521299,                      !- Thermal Resistance {m2-K/W}
  0.9,                                    !- Thermal Absorptance
  0.7,                                    !- Solar Absorptance
  0.7;                                    !- Visible Absorptance

OS:Construction,
  {d04ae3a4-ef8c-4fda-909f-c26421eee4b2}, !- Handle
  Mass Wall CZ1 R-12 |Mass Wall CZ1 R-2.1, !- Name
  ,                                       !- Surface Rendering Name
  {27eaca62-94b2-40e7-9637-102ace5dd10a}, !- Layer 1
  {29092fba-fe25-4e5e-a458-bdbece9261b9}, !- Layer 2
  {3c0ce002-f66f-4418-b235-3abe20876a79}, !- Layer 3
  {92bc572a-b37d-4c3a-9427-2810bd8efde0}; !- Layer 4

OS:StandardsInformation:Construction,
  {92651de5-3c26-46b5-a500-d8f92e5ef45d}, !- Handle
  {d04ae3a4-ef8c-4fda-909f-c26421eee4b2}, !- Construction Name
  ExteriorWall,                           !- Intended Surface Type
  Mass;                                   !- Standards Construction Type

OS:Material:NoMass,
  {3c0ce002-f66f-4418-b235-3abe20876a79}, !- Handle
  Typical Insulation R-9.34,              !- Name
  Smooth,                                 !- Roughness
  1.64410397893283,                       !- Thermal Resistance {m2-K/W}
  0.9,                                    !- Thermal Absorptance
  0.7,                                    !- Solar Absorptance
  0.7;                                    !- Visible Absorptance

OS:Construction,
  {1743305d-0812-44ed-bfa0-c5d77d540240}, !- Handle
  Mass Wall CZ1 R-17 |Mass Wall CZ1 R-2.9, !- Name
  ,                                       !- Surface Rendering Name
  {27eaca62-94b2-40e7-9637-102ace5dd10a}, !- Layer 1
  {29092fba-fe25-4e5e-a458-bdbece9261b9}, !- Layer 2
  {dab1f4da-ab19-4b00-b9eb-61cd31cc8565}, !- Layer 3
  {92bc572a-b37d-4c3a-9427-2810bd8efde0}; !- Layer 4

OS:StandardsInformation:Construction,
  {404a5756-c124-4cbc-946f-bddc87182bcd}, !- Handle
  {1743305d-0812-44ed-bfa0-c5d77d540240}, !- Construction Name
  ExteriorWall,                           !- Intended Surface Type
  Mass;                                   !- Standards Construction Type

OS:Material:NoMass,
  {dab1f4da-ab19-4b00-b9eb-61cd31cc8565}, !- Handle
  Typical Insulation R-14.34,             !- Name
  Smooth,                                 !- Roughness
  2.52465489734436,                       !- Thermal Resistance {m2-K/W}
  0.9,                                    !- Thermal Absorptance
  0.7,                                    !- Solar Absorptance
  0.7;                                    !- Visible Absorptance

OS:Construction,
  {0510f4bb-f248-4ae7-8e36-9e58401d7e59}, !- Handle
  Mass Wall CZ1 R-22 |Mass Wall CZ1 R-3.8, !- Name
  ,                                       !- Surface Rendering Name
  {27eaca62-94b2-40e7-9637-102ace5dd10a}, !- Layer 1
  {29092fba-fe25-4e5e-a458-bdbece9261b9}, !- Layer 2
  {ac962859-cc71-4f9a-ba81-0df8ec078ad8}, !- Layer 3
  {92bc572a-b37d-4c3a-9427-2810bd8efde0}; !- Layer 4

OS:StandardsInformation:Construction,
  {4516ce76-d50f-41c2-b609-1cf0d2a01d23}, !- Handle
  {0510f4bb-f248-4ae7-8e36-9e58401d7e59}, !- Construction Name
  ExteriorWall,                           !- Intended Surface Type
  Mass;                                   !- Standards Construction Type

OS:Material:NoMass,
  {ac962859-cc71-4f9a-ba81-0df8ec078ad8}, !- Handle
  Typical Insulation R-19.34,             !- Name
  Smooth,                                 !- Roughness
  3.40520581575589,                       !- Thermal Resistance {m2-K/W}
  0.9,                                    !- Thermal Absorptance
  0.7,                                    !- Solar Absorptance
  0.7;                                    !- Visible Absorptance

OS:Construction,
  {becab7a8-9f54-40b7-8699-ff365630b4bd}, !- Handle
  Metal Wall CZ1 R-9 |Metal Wall CZ1 R-1.6, !- Name
  ,                                       !- Surface Rendering Name
  {9d9ec89d-1271-4128-b815-3cf3e8d295a5}, !- Layer 1
  {a03ab489-0290-490a-920a-6ebd9e8fd770}, !- Layer 2
  {92bc572a-b37d-4c3a-9427-2810bd8efde0}; !- Layer 3

OS:StandardsInformation:Construction,
  {e3dd67e1-8c53-48ec-ba12-c59b62e00092}, !- Handle
  {becab7a8-9f54-40b7-8699-ff365630b4bd}, !- Construction Name
  ExteriorWall,                           !- Intended Surface Type
  Metal Building;                         !- Standards Construction Type

OS:Material,
  {9d9ec89d-1271-4128-b815-3cf3e8d295a5}, !- Handle
  Metal Siding,                           !- Name
  Smooth,                                 !- Roughness
  0.0015,                                 !- Thickness {m}
  44.9599999999999,                       !- Conductivity {W/m-K}
  7688.86,                                !- Density {kg/m3}
  410,                                    !- Specific Heat {J/kg-K}
  0.9,                                    !- Thermal Absorptance
  0.7,                                    !- Solar Absorptance
  0.7;                                    !- Visible Absorptance

OS:Material:NoMass,
  {a03ab489-0290-490a-920a-6ebd9e8fd770}, !- Handle
  Typical Insulation R-7.55,              !- Name